38
  xed2sdf           3D
 
 49 52  0  0  0  0  0  0  0  0999 V2000
    7.8414  -14.5951   -8.1310 C   0  0  0  0  0  0  0  0  0  0  0  0
    8.5715  -15.5578   -7.4790 C   0  0  0  0  0  0  0  0  0  0  0  0
    9.5548  -15.1830   -6.5971 C   0  0  0  0  0  0  0  0  0  0  0  0
    9.8291  -13.8477   -6.3438 C   0  0  0  0  0  0  0  0  0  0  0  0
    9.0882  -12.8610   -7.0116 C   0  0  0  0  0  0  0  0  0  0  0  0
    9.2582  -11.4127   -6.8585 C   0  0  0  0  0  0  0  0  0  0  0  0
    8.3471  -10.4379   -6.7698 C   0  0  0  0  0  0  0  0  0  0  0  0
    8.8890   -9.2288   -6.6384 O   0  0  0  0  0  0  0  0  0  0  0  0
   10.2882   -9.3908   -6.6361 N   0  0  0  0  0  0  0  0  0  0  0  0
   10.4687  -10.6677   -6.7663 C   0  0  0  0  0  0  0  0  0  0  0  0
    8.1023  -13.2678   -7.8974 C   0  0  0  0  0  0  0  0  0  0  0  0
   10.7924  -13.4940   -5.4762 O   0  0  0  0  0  0  0  0  0  0  0  0
   11.3118  -14.4653   -4.5376 C   0  0  0  0  0  0  0  0  0  0  0  0
   11.8591  -13.8624   -3.2496 C   0  0  0  0  0  0  0  0  0  0  0  0
   12.5993  -14.6859   -2.4294 C   0  0  0  0  0  0  0  0  0  0  0  0
   13.1097  -14.2169   -1.2435 C   0  0  0  0  0  0  0  0  0  0  0  0
   12.8974  -12.9044   -0.8508 C   0  0  0  0  0  0  0  0  0  0  0  0
   12.1568  -12.0786   -1.6828 C   0  0  0  0  0  0  0  0  0  0  0  0
   11.6468  -12.5531   -2.8665 C   0  0  0  0  0  0  0  0  0  0  0  0
   13.4293  -12.4232    0.4508 C   0  0  0  0  0  0  0  0  0  0  0  0
   12.7832  -12.7900    1.4304 O   0  0  0  0  0  0  0  0  0  0  0  0
   14.5279  -11.6317    0.5423 N   0  0  0  0  0  0  0  0  0  0  0  0
   14.9921  -11.1486    1.8576 C   0  0  0  0  0  0  0  0  0  0  0  0
   16.4930  -11.4242    2.0695 C   0  0  0  0  0  0  0  0  0  0  0  0
   17.2927  -10.8044    0.9094 C   0  0  0  0  0  0  0  0  0  0  0  0
   16.8307  -11.4354   -0.4173 C   0  0  0  0  0  0  0  0  0  0  0  0
   15.3205  -11.2040   -0.6309 C   0  0  0  0  0  0  0  0  0  0  0  0
    7.1223  -14.8597   -8.7736 H   0  0  0  0  0  0  0  0  0  0  0  0
    8.3882  -16.5267   -7.6455 H   0  0  0  0  0  0  0  0  0  0  0  0
   10.0849  -15.8887   -6.1271 H   0  0  0  0  0  0  0  0  0  0  0  0
    7.3608  -10.6003   -6.7992 H   0  0  0  0  0  0  0  0  0  0  0  0
   11.3742  -11.0908   -6.7989 H   0  0  0  0  0  0  0  0  0  0  0  0
    7.5663  -12.5749   -8.3797 H   0  0  0  0  0  0  0  0  0  0  0  0
   12.0474  -14.9734   -4.9858 H   0  0  0  0  0  0  0  0  0  0  0  0
   10.5433  -15.0487   -4.2751 H   0  0  0  0  0  0  0  0  0  0  0  0
   12.7665  -15.6341   -2.7001 H   0  0  0  0  0  0  0  0  0  0  0  0
   13.6403  -14.8289   -0.6571 H   0  0  0  0  0  0  0  0  0  0  0  0
   11.9924  -11.1283   -1.4184 H   0  0  0  0  0  0  0  0  0  0  0  0
   11.1166  -11.9444   -3.4566 H   0  0  0  0  0  0  0  0  0  0  0  0
   14.4710  -11.6094    2.5759 H   0  0  0  0  0  0  0  0  0  0  0  0
   14.8503  -10.1593    1.8935 H   0  0  0  0  0  0  0  0  0  0  0  0
   16.6522  -12.4110    2.0986 H   0  0  0  0  0  0  0  0  0  0  0  0
   16.7894  -11.0178    2.9338 H   0  0  0  0  0  0  0  0  0  0  0  0
   18.2684  -10.9778    1.0434 H   0  0  0  0  0  0  0  0  0  0  0  0
   17.1363   -9.8171    0.8831 H   0  0  0  0  0  0  0  0  0  0  0  0
   17.0158  -12.4180   -0.3978 H   0  0  0  0  0  0  0  0  0  0  0  0
   17.3311  -11.0070   -1.1697 H   0  0  0  0  0  0  0  0  0  0  0  0
   15.1596  -10.2307   -0.7946 H   0  0  0  0  0  0  0  0  0  0  0  0
   15.0317  -11.7506   -1.4169 H   0  0  0  0  0  0  0  0  0  0  0  0
  1  2  2  0
  1 11  1  0
  2  3  1  0
  3  4  2  0
  4  5  1  0
  4 12  1  0
  5  6  1  0
  5 11  2  0
  6  7  2  0
  6 10  1  0
  7  8  1  0
  8  9  1  0
  9 10  2  0
 12 13  1  0
 13 14  1  0
 14 15  2  0
 14 19  1  0
 15 16  1  0
 16 17  2  0
 17 18  1  0
 17 20  1  0
 18 19  2  0
 20 21  2  0
 20 22  1  0
 22 23  1  0
 22 27  1  0
 23 24  1  0
 24 25  1  0
 25 26  1  0
 26 27  1  0
  1 28  1  0
  2 29  1  0
  3 30  1  0
  7 31  1  0
 10 32  1  0
 11 33  1  0
 13 34  1  0
 13 35  1  0
 15 36  1  0
 16 37  1  0
 18 38  1  0
 19 39  1  0
 23 40  1  0
 23 41  1  0
 24 42  1  0
 24 43  1  0
 25 44  1  0
 25 45  1  0
 26 46  1  0
 26 47  1  0
 27 48  1  0
 27 49  1  0
M  END
>  <Total Formal Charge>
0

>  <LF dG>
-9.817

>  <LF VSscore>
-11.274

>  <LF Rank Score>
-7.451

>  <LF LE>
-0.364

>  <Favorite_cresset>
false

>  <Protein_cresset>
9PFL_A

>  <MW_cresset>
362.4

>  <#Atoms_cresset>
27

>  <SlogP_cresset>
4.0

>  <TPSA_cresset>
55.6

>  <Flexibility_cresset>
4.0

>  <HBA_cresset>
5

>  <HBD_cresset>
0

>  <Rof5_cresset>
0

>  <Confs_cresset>
0

>  <Poses_cresset>
0

>  <_cresset_fieldpoints2>
 2
    -5      10.669004     -14.192322      -9.495237     -2.8311
    -5       6.876976     -14.373528      -5.069625     -2.3304
    -5      11.183674     -13.782643       1.508271    -16.9194
    -5      10.205061      -7.559756      -6.471004    -12.6048
    -5      13.101189     -12.523030      -5.739135     -2.2256
    -6       5.910755     -11.194107      -8.057156      5.9718
    -6      11.242853     -17.228386      -4.963805      6.0399
    -6      13.371588      -9.323063      -2.013420      2.8307
    -6      13.065758     -12.041182      -7.483874      1.8685
    -6      16.066689      -9.880783      -3.061037      3.0247
    -6      16.609669      -8.491383      -1.368571      3.0296
    -6      15.550112      -8.167898       0.350550      2.9270
    -6      19.047878     -13.428423       0.802821      1.7668
    -6      16.150261      -8.323395       2.625039      2.7134
    -7       6.441916     -17.447708      -9.329235     -0.9694
    -7      13.301946     -12.380720      -5.953849     -2.6437
    -7       9.750511      -7.797082      -8.431227     -1.3171
    -7       8.470051     -12.597914      -3.666903     -3.0568
    -7      16.731888      -8.139970      -1.113994     -1.5476
    -7      15.692562     -14.387041       0.789085     -3.1030
    -7      11.173594     -17.608974      -4.526278     -1.8126
    -7      15.034085     -12.630531      -3.787413     -2.5906
    -7      12.728754      -9.421499       0.307903     -2.4995
    -7       9.594100     -14.344601      -0.730515     -1.9379
    -7      16.358532      -8.163346       2.816347     -1.5129
    -7      15.318489      -8.003468       0.521237     -1.8704
    -7      18.660477     -13.855059       1.108757     -1.5327
    -8       8.808867     -14.220640      -7.261489      7.0395
    -8      12.382153     -13.385041      -2.058277      7.1526
    -8       8.525978     -12.118938      -7.265714      5.3615
    -8      16.484976     -11.195496       0.802806      5.9117

$$$$
