4
  xed2sdf           3D
 
 43 45  0  0  0  0  0  0  0  0999 V2000
   17.4730  -11.0070    1.1489 C   0  0  0  0  0  0  0  0  0  0  0  0
   16.5551  -11.5220    2.2680 C   0  0  0  0  0  0  0  0  0  0  0  0
   15.1060  -11.1150    1.9600 C   0  0  0  0  0  0  0  0  0  0  0  0
   14.6810  -11.7540    0.6880 N   0  0  0  0  0  0  0  0  0  0  0  0
   15.5130  -11.4230   -0.4750 C   0  0  0  0  0  0  0  0  0  0  0  0
   17.0190  -11.6020   -0.1970 C   0  0  0  0  0  0  0  0  0  0  0  0
   13.4530  -12.4350    0.5250 C   0  0  0  0  0  0  0  0  0  0  0  0
   12.6381  -12.4750    1.4400 O   0  0  0  0  0  0  0  0  0  0  0  0
   12.9941  -12.9820   -0.7830 C   0  0  0  0  0  0  0  0  0  0  0  0
   12.4040  -12.1290   -1.7390 C   0  0  0  0  0  0  0  0  0  0  0  0
   11.9200  -12.6480   -2.9610 C   0  0  0  0  0  0  0  0  0  0  0  0
   11.9720  -14.0250   -3.2490 C   0  0  0  0  0  0  0  0  0  0  0  0
   12.5540  -14.8850   -2.2880 C   0  0  0  0  0  0  0  0  0  0  0  0
   13.0780  -14.3680   -1.0730 C   0  0  0  0  0  0  0  0  0  0  0  0
   11.3160  -14.5970   -4.5260 C   0  0  0  0  0  0  0  0  0  0  0  0
   11.1040  -13.5840   -5.5720 O   0  0  0  0  0  0  0  0  0  0  0  0
   10.0440  -13.7950   -6.4600 C   0  0  0  0  0  0  0  0  0  0  0  0
    9.5229  -15.0890   -6.7560 C   0  0  0  0  0  0  0  0  0  0  0  0
    8.3650  -15.2300   -7.5600 C   0  0  0  0  0  0  0  0  0  0  0  0
    7.7390  -14.0830   -8.0910 C   0  0  0  0  0  0  0  0  0  0  0  0
    8.2880  -12.8070   -7.8610 C   0  0  0  0  0  0  0  0  0  0  0  0
    9.4280  -12.6600   -7.0450 C   0  0  0  0  0  0  0  0  0  0  0  0
   10.1000  -10.9060   -6.6990 Br  0  0  0  0  0  0  0  0  0  0  0  0
   18.5161  -11.2850    1.3430 H   0  0  0  0  0  0  0  0  0  0  0  0
   17.4220   -9.9170    1.1130 H   0  0  0  0  0  0  0  0  0  0  0  0
   16.8630  -11.0990    3.2250 H   0  0  0  0  0  0  0  0  0  0  0  0
   16.6270  -12.6130    2.3420 H   0  0  0  0  0  0  0  0  0  0  0  0
   15.0390  -10.0260    1.8770 H   0  0  0  0  0  0  0  0  0  0  0  0
   14.4820  -11.3930    2.7930 H   0  0  0  0  0  0  0  0  0  0  0  0
   15.3070  -10.3860   -0.7530 H   0  0  0  0  0  0  0  0  0  0  0  0
   15.2640  -12.0620   -1.3200 H   0  0  0  0  0  0  0  0  0  0  0  0
   17.2540  -12.6690   -0.2060 H   0  0  0  0  0  0  0  0  0  0  0  0
   17.5800  -11.1340   -1.0080 H   0  0  0  0  0  0  0  0  0  0  0  0
   12.3430  -11.0630   -1.5510 H   0  0  0  0  0  0  0  0  0  0  0  0
   11.5370  -11.9820   -3.7150 H   0  0  0  0  0  0  0  0  0  0  0  0
   12.6220  -15.9510   -2.4810 H   0  0  0  0  0  0  0  0  0  0  0  0
   13.5550  -15.0390   -0.3630 H   0  0  0  0  0  0  0  0  0  0  0  0
   10.3580  -15.0380   -4.2310 H   0  0  0  0  0  0  0  0  0  0  0  0
   11.9350  -15.4100   -4.9230 H   0  0  0  0  0  0  0  0  0  0  0  0
    9.9960  -15.9860   -6.3670 H   0  0  0  0  0  0  0  0  0  0  0  0
    7.9410  -16.2110   -7.7780 H   0  0  0  0  0  0  0  0  0  0  0  0
    7.8390  -11.9330   -8.3270 H   0  0  0  0  0  0  0  0  0  0  0  0
    6.8480  -14.1800   -8.7070 H   0  0  0  0  0  0  0  0  0  0  0  0
  1  2  1  0
  1  6  1  0
  2  3  1  0
  3  4  1  0
  4  5  1  0
  4  7  1  0
  5  6  1  0
  7  8  2  0
  7  9  1  0
  9 10  2  0
  9 14  1  0
 10 11  1  0
 11 12  2  0
 12 13  1  0
 12 15  1  0
 13 14  2  0
 15 16  1  0
 16 17  1  0
 17 18  2  0
 17 22  1  0
 18 19  1  0
 19 20  2  0
 20 21  1  0
 21 22  2  0
 22 23  1  0
  1 24  1  0
  1 25  1  0
  2 26  1  0
  2 27  1  0
  3 28  1  0
  3 29  1  0
  5 30  1  0
  5 31  1  0
  6 32  1  0
  6 33  1  0
 10 34  1  0
 11 35  1  0
 13 36  1  0
 14 37  1  0
 15 38  1  0
 15 39  1  0
 18 40  1  0
 19 41  1  0
 20 43  1  0
 21 42  1  0
M  END
>  <Total Formal Charge>
0

>  <LF dG>
-9.929

>  <LF VSscore>
-11.361

>  <LF Rank Score>
-11.013

>  <LF LE>
-0.414

>  <Protein>
9PFL_A

>  <Favorite_cresset>
false

>  <Protein_cresset>
9PFL_A [Unassociated]

>  <MW_cresset>
374.3

>  <#Atoms_cresset>
23

>  <SlogP_cresset>
4.7

>  <TPSA_cresset>
29.5

>  <Flexibility_cresset>
4.0

>  <HBA_cresset>
3

>  <HBD_cresset>
0

>  <Rof5_cresset>
0

>  <Confs_cresset>
0

>  <Poses_cresset>
0

>  <_cresset_fieldpoints2>
 2
    -5      10.894120     -13.177735       1.409065    -17.1637
    -5      15.286222     -13.889317       1.223608     -4.5798
    -5       8.813392     -12.386726      -3.971513     -3.3324
    -5      12.861423     -12.504185      -6.217771     -6.2571
    -5      10.857758     -13.827801      -9.529570     -3.0459
    -6      15.924786      -8.316084       0.206342      3.1111
    -6      16.445702      -8.394113       2.816672      2.7826
    -6      16.779457      -8.607307      -1.042207      3.0956
    -6      13.742843      -9.456905      -2.181141      3.3878
    -6      16.229031     -10.155558      -2.952285      3.1544
    -6      10.713938     -17.352995      -4.992077      5.9485
    -6       6.137417     -16.667946      -8.993030      2.7818
    -6       5.958792     -12.114388      -9.639343      2.8407
    -7      16.680984      -8.288343       3.084003     -1.4927
    -7      15.332485     -13.201455      -3.555506     -2.4876
    -7      18.632206     -14.128744       1.502586     -1.5224
    -7      15.794093      -8.097244       0.306698     -1.8397
    -7      12.912985      -9.456190       0.269288     -2.5045
    -7       9.503389     -14.007104      -0.903678     -1.9493
    -7       8.687854     -12.642265      -3.725703     -2.9845
    -7      13.317796     -12.140633      -5.957076     -2.5618
    -7      10.399426     -17.661198      -4.514233     -1.7186
    -7      16.250662     -14.651936      -1.423670     -2.1553
    -7      15.689587     -14.497781       0.928342     -3.0651
    -7      10.981224     -13.904392      -9.773727     -1.9030
    -7      10.825590     -17.627678      -3.748588     -1.6698
    -7       5.832529     -16.571821      -9.410507     -0.9750
    -7       5.737789     -11.991640      -9.919241     -1.0148
    -8      16.606987     -11.301794       1.009296      5.7271
    -8      12.490942     -13.506758      -2.015449      6.8631
    -8       9.398856     -11.967531      -7.121132      5.2880
    -8       8.878042     -13.949148      -7.311460      6.7537

$$$$
