A A1C 301
  xed2sdf           3D
 
 52 56  0  0  0  0  0  0  0  0999 V2000
    6.7250  -14.3140   -9.1910 C   0  0  0  0  0  0  0  0  0  0  0  0
   13.4110  -12.4450    0.5800 C   0  0  0  0  0  0  0  0  0  0  0  0
   15.5470  -11.6310   -0.4180 C   0  0  0  0  0  0  0  0  0  0  0  0
   16.8960  -12.1970   -0.0050 C   0  0  0  0  0  0  0  0  0  0  0  0
   17.3430  -11.6460    1.3510 C   0  0  0  0  0  0  0  0  0  0  0  0
   16.2590  -11.7680    2.4110 C   0  0  0  0  0  0  0  0  0  0  0  0
   14.9700  -11.1560    1.9210 C   0  0  0  0  0  0  0  0  0  0  0  0
   11.9120  -12.7360   -1.4070 C   0  0  0  0  0  0  0  0  0  0  0  0
   11.5670  -13.3880   -2.5700 C   0  0  0  0  0  0  0  0  0  0  0  0
   12.3640  -14.4160   -3.0770 C   0  0  0  0  0  0  0  0  0  0  0  0
   11.1440  -13.0700   -5.3860 C   0  0  0  0  0  0  0  0  0  0  0  0
    9.3580  -14.6610   -6.7900 C   0  0  0  0  0  0  0  0  0  0  0  0
   10.3040  -12.4880   -6.2730 C   0  0  0  0  0  0  0  0  0  0  0  0
    8.4240  -12.9740   -7.8710 C   0  0  0  0  0  0  0  0  0  0  0  0
   10.2420  -15.2580   -5.9010 C   0  0  0  0  0  0  0  0  0  0  0  0
   11.0990  -14.4540   -5.1650 C   0  0  0  0  0  0  0  0  0  0  0  0
   12.5070  -16.4680   -4.3940 C   0  0  0  0  0  0  0  0  0  0  0  0
   13.9690  -16.4580   -4.0390 C   0  0  0  0  0  0  0  0  0  0  0  0
   13.4940  -14.8110   -2.3690 C   0  0  0  0  0  0  0  0  0  0  0  0
   13.8510  -14.1570   -1.2050 C   0  0  0  0  0  0  0  0  0  0  0  0
   13.0430  -13.1340   -0.6960 C   0  0  0  0  0  0  0  0  0  0  0  0
   17.7440  -10.3440    1.2290 F   0  0  0  0  0  0  0  0  0  0  0  0
   18.4010  -12.3570    1.7600 F   0  0  0  0  0  0  0  0  0  0  0  0
    7.8190  -14.1250   -8.2450 N   0  0  0  0  0  0  0  0  0  0  0  0
    8.3730  -15.1890   -7.5880 N   0  0  0  0  0  0  0  0  0  0  0  0
   12.0250  -15.0790   -4.2560 N   0  0  0  0  0  0  0  0  0  0  0  0
   14.5680  -11.7820    0.6570 N   0  0  0  0  0  0  0  0  0  0  0  0
    9.4120  -13.2840   -6.9660 N   0  0  0  0  0  0  0  0  0  0  0  0
   14.3120  -15.8110   -2.7970 O   0  0  0  0  0  0  0  0  0  0  0  0
   12.5780  -12.3930    1.4870 O   0  0  0  0  0  0  0  0  0  0  0  0
    8.1660  -11.8270   -8.2360 O   0  0  0  0  0  0  0  0  0  0  0  0
    6.3230  -13.4280   -9.4230 H   0  0  0  0  0  0  0  0  0  0  0  0
    7.0700  -14.7430  -10.0260 H   0  0  0  0  0  0  0  0  0  0  0  0
    6.0310  -14.9000   -8.7730 H   0  0  0  0  0  0  0  0  0  0  0  0
   15.6500  -10.6610   -0.6370 H   0  0  0  0  0  0  0  0  0  0  0  0
   15.2210  -12.1140   -1.2300 H   0  0  0  0  0  0  0  0  0  0  0  0
   16.8290  -13.1930    0.0520 H   0  0  0  0  0  0  0  0  0  0  0  0
   17.5780  -11.9560   -0.6960 H   0  0  0  0  0  0  0  0  0  0  0  0
   16.1090  -12.7340    2.6210 H   0  0  0  0  0  0  0  0  0  0  0  0
   16.5540  -11.2970    3.2420 H   0  0  0  0  0  0  0  0  0  0  0  0
   14.2540  -11.2950    2.6050 H   0  0  0  0  0  0  0  0  0  0  0  0
   15.0990  -10.1740    1.7799 H   0  0  0  0  0  0  0  0  0  0  0  0
   12.3810  -16.7870   -5.3330 H   0  0  0  0  0  0  0  0  0  0  0  0
   12.0040  -17.0720   -3.7760 H   0  0  0  0  0  0  0  0  0  0  0  0
   14.2800  -17.4070   -3.9890 H   0  0  0  0  0  0  0  0  0  0  0  0
   14.4620  -15.9930   -4.7740 H   0  0  0  0  0  0  0  0  0  0  0  0
   11.3520  -11.9780   -1.0730 H   0  0  0  0  0  0  0  0  0  0  0  0
   10.7350  -13.1220   -3.0570 H   0  0  0  0  0  0  0  0  0  0  0  0
   11.8020  -12.5090   -4.8840 H   0  0  0  0  0  0  0  0  0  0  0  0
   10.3280  -11.5000   -6.4240 H   0  0  0  0  0  0  0  0  0  0  0  0
   10.2600  -16.2520   -5.7930 H   0  0  0  0  0  0  0  0  0  0  0  0
   14.6890  -14.4160   -0.7250 H   0  0  0  0  0  0  0  0  0  0  0  0
  1 24  1  0
  2 21  1  0
  2 27  1  0
  2 30  2  0
  3  4  1  0
  3 27  1  0
  4  5  1  0
  5  6  1  0
  5 22  1  0
  5 23  1  0
  6  7  1  0
  7 27  1  0
  8  9  1  0
  8 21  2  0
  9 10  2  0
 10 19  1  0
 10 26  1  0
 11 13  2  0
 11 16  1  0
 12 15  1  0
 12 25  2  0
 12 28  1  0
 13 28  1  0
 14 24  1  0
 14 28  1  0
 14 31  2  0
 15 16  2  0
 16 26  1  0
 17 18  1  0
 17 26  1  0
 18 29  1  0
 19 20  2  0
 19 29  1  0
 20 21  1  0
 24 25  1  0
  1 32  1  0
  1 33  1  0
  1 34  1  0
  3 35  1  0
  3 36  1  0
  4 37  1  0
  4 38  1  0
  6 39  1  0
  6 40  1  0
  7 41  1  0
  7 42  1  0
  8 47  1  0
  9 48  1  0
 11 49  1  0
 13 50  1  0
 15 51  1  0
 17 43  1  0
 17 44  1  0
 18 45  1  0
 18 46  1  0
 20 52  1  0
M  END
>  <Total Formal Charge>
0

>  <Protein>
9PFL_A

>  <Favorite_cresset>
false

>  <Protein_cresset>
9PFL_A [Unassociated]

>  <MW_cresset>
429.4

>  <#Atoms_cresset>
31

>  <SlogP_cresset>
2.6

>  <TPSA_cresset>
68.7

>  <Flexibility_cresset>
2.2

>  <HBA_cresset>
8

>  <HBD_cresset>
0

>  <Rof5_cresset>
0

>  <Confs_cresset>
0

>  <Poses_cresset>
0

>  <_cresset_fieldpoints2>
 2
    -5       7.238373     -10.563404      -9.204479    -14.0725
    -5       7.825708     -16.844048      -7.750405    -13.7820
    -5      10.935438     -13.275969       1.686819    -16.5823
    -5      20.466135     -10.436568       2.058364     -3.0656
    -5      15.751137     -16.933617      -1.588980     -2.8992
    -6       4.663897     -14.714433     -11.036955      2.4569
    -6      16.682831     -12.480198      -2.950008      4.6264
    -6      11.245808     -10.419012      -4.770688      6.1620
    -6      15.974565     -15.049118       0.804341      4.0281
    -6      15.395604      -9.498079       4.252189      2.9231
    -6      10.888288     -18.449322      -5.397498      5.3211
    -6      12.997217     -19.032839      -5.289924      5.4368
    -7       8.561275     -12.062508     -10.702396     -1.2463
    -7       8.432082     -13.483240      -4.088752     -2.6608
    -7      10.022566     -14.901493      -9.604486     -1.8842
    -7       4.538796     -14.365591     -11.597046     -0.6120
    -7       5.814122     -11.893043      -7.107591     -1.2431
    -7       4.079914     -14.494214     -11.054749     -0.6114
    -7       9.476358     -16.045677      -3.087180     -2.5467
    -7      14.070444     -13.600023      -5.754762     -2.8149
    -7      16.651234     -13.839321      -2.865408     -2.5393
    -7      14.358294     -11.735462      -3.721240     -2.8233
    -7      15.438689      -8.240740       0.139752     -1.7050
    -7      18.869011     -14.631598      -0.749247     -1.2734
    -7      18.649746     -10.325935       4.435670     -1.3790
    -7      17.725302     -13.169395       4.914912     -1.2100
    -7      16.326027      -8.661947       3.693113     -1.5246
    -7      10.035460     -10.716827      -3.756476     -1.9482
    -7      11.112270     -16.784454      -1.190688     -2.1176
    -7      20.085222     -11.316589      -0.953438     -1.3824
    -7      17.721203      -9.621187      -2.000988     -1.5508
    -7       6.646466     -14.335400      -5.813515     -1.8944
    -7      12.998367      -9.635608      -0.274975     -2.5161
    -7      15.304110     -14.811504       1.597245     -3.0112
    -7      11.464573     -14.838501       1.524252     -1.6635
    -8       6.051705     -14.417734      -9.767002      2.4853
    -8      17.069296     -11.701721       1.291919      6.5513
    -8      12.697927     -13.731279      -1.862221      6.8978
    -8      10.511909     -14.003616      -5.810063      5.0650
    -8      13.285788     -16.942738      -4.559722      3.9401
    -8      11.400070     -13.439203      -4.025849      4.3344
    -8      12.789816     -15.575624      -3.692703      3.0950

$$$$
